<?xml version="1.0" encoding="UTF-8"?>

<routes>
    <vType id="car" accel="2.6" decel="4.5" sigma="0.5" length="5.0" maxSpeed="13.89"/>

    <route id="north_to_south" edges="A2A1 A1A0"/>
    <route id="south_to_north" edges="A0A1 A1A2"/>
    <route id="west_to_east" edges="A1B1 B1C1"/>
    <route id="east_to_west" edges="C1B1 B1A1"/>

    <flow id="flow_north_south" type="car" route="north_to_south" begin="0" end="600" vehsPerHour="300"/>
    <flow id="flow_south_north" type="car" route="south_to_north" begin="0" end="600" vehsPerHour="300"/>
    <flow id="flow_west_east" type="car" route="west_to_east" begin="0" end="600" vehsPerHour="200"/>
    <flow id="flow_east_west" type="car" route="east_to_west" begin="0" end="600" vehsPerHour="200"/>
</routes>
